15
Energy: -607742.28 kJ/mol
C 1.92071129 0.07575154 -0.16280225
C 0.55724940 -0.60724134 -0.18021709
C -0.60900385 0.36450286 -0.02303789
C -1.94973372 -0.34345405 -0.06008859
O -0.54177677 1.06175621 1.21874401
H 2.11110414 0.56948320 0.80039506
H 1.98532433 0.83455458 -0.95547612
H 2.72608475 -0.65131251 -0.32153717
H 0.42317798 -1.14327259 -1.13150827
H 0.49218178 -1.35579449 0.62478558
H -0.56471844 1.09981694 -0.84604766
H -2.07114071 -0.87808384 -1.01023416
H -2.76933250 0.37746705 0.04599824
H -2.00988900 -1.07034964 0.76194904
H 0.24479721 1.61742928 1.23222699
