15
Energy: -607738.25 kJ/mol
C 1.56808348 0.44304057 0.33251283
C 0.78133486 -0.44767913 -0.62568588
C -0.68424361 -0.65107611 -0.23604977
C -1.47680706 0.64697604 -0.16588130
O -0.79581238 -1.37567333 0.98660747
H 2.62586295 0.47664195 0.04510443
H 1.18774534 1.47275030 0.33024598
H 1.51952095 0.06313179 1.36313182
H 1.25239709 -1.43939605 -0.68271283
H 0.81010711 -0.02177894 -1.63959392
H -1.14376737 -1.30747966 -0.98789266
H -1.38607515 1.20569180 -1.10684580
H -1.10425411 1.28278373 0.64991858
H -2.53675309 0.43459843 0.01903973
H -0.51984878 -0.80659759 1.71490041
