20
Energy: -1341627.41 kJ/mol
O 1.22040064 -4.10097662 0.50505518
O 4.64402248 1.46712923 0.34031858
N 2.35594899 1.36858662 0.07621157
C 2.11771851 -0.02272125 0.19163380
C 0.78214192 -0.44736002 0.13987176
C 3.13241564 -0.97973383 0.34743560
C 0.45672928 -1.79640881 0.24093621
C 2.80213092 -2.33007811 0.44956443
C 1.47188612 -2.74171889 0.39704632
C 3.54259748 2.03532769 0.15008488
C 3.45719357 3.52818323 -0.04361416
H -0.00908466 0.28592844 0.02058526
H 4.16391343 -0.66765802 0.38943649
H 1.52960996 1.93409319 -0.07252124
H -0.58095050 -2.11014935 0.19973589
H 3.57781569 -3.07675845 0.57050481
H 4.12857705 4.01391865 0.66569422
H 3.79773819 3.77745667 -1.05312780
H 2.44644394 3.91552561 0.09008297
H 0.26882717 -4.31210033 0.46152401
